Circuit: * C:\Users\ddimodica\Desktop\Codemind\DanmuseGitHub\InductometerTRD_FRBA\Simulations\Inductometer RLC-parallel\Inductometer.asc

Direct Newton iteration for .op point succeeded.

Date: Wed Jun  5 00:30:00 2024
Total elapsed time: 0.086 seconds.

tnom = 27
temp = 27
method = trap
totiter = 45
traniter = 0
tranpoints = 0
accept = 0
rejected = 0
matrix size = 7
fillins = 0
solver = Normal
Avg thread counts: 8.0/0.0/8.0/2.0
Matrix Compiler1:      11 opcodes
Matrix Compiler2:      40 opcodes
