Circuit: * C:\Users\ddimodica\Desktop\Codemind\DanmuseGitHub\InductometerTRD_FRBA\Simulations\Inductometer RLC-series\Inductometer.asc

Direct Newton iteration for .op point succeeded.

Date: Wed Jun  5 00:39:39 2024
Total elapsed time: 0.071 seconds.

tnom = 27
temp = 27
method = trap
totiter = 3
traniter = 0
tranpoints = 0
accept = 0
rejected = 0
matrix size = 4
fillins = 0
solver = Normal
Avg thread counts: 8.0/0.0/8.0/2.1
Matrix Compiler1:       6 opcodes
Matrix Compiler2: 248 bytes object code size
