LTspice 24.0.12 for Windows
Circuit: * C:\Users\ddimodica\Desktop\Codemind\DanmuseGitHub\InductometerTRD_FRBA\Simulations\Inductometer RLC-series\Inductometer.asc
Start Time: Sun Jul  7 14:00:38 2024
solver = Normal
Maximum thread count: 8
tnom = 27
temp = 27
method = modified trap
Direct Newton iteration for .op point succeeded.
Total elapsed time: 0.074 seconds.

