Circuit: * C:\Users\ddimodica\Desktop\Codemind\DanmuseGitHub\InductometerTRD_FRBA\Simulations\Inductometer RLC-series\Inductometer.asc

Direct Newton iteration for .op point succeeded.

Date: Sun Jun  9 14:19:57 2024
Total elapsed time: 0.116 seconds.

tnom = 27
temp = 27
method = modified trap
totiter = 3057
traniter = 3054
tranpoints = 1528
accept = 1268
rejected = 260
matrix size = 6
fillins = 0
solver = Normal
Avg thread counts: 1.2/1.4/1.4/1.2
Matrix Compiler1:      16 opcodes  0.4/[0.3]/0.4
Matrix Compiler2: off  [0.3]/0.4/0.3

