LTspice 24.0.12 for Windows
Circuit: * C:\Users\ddimodica\Desktop\Codemind\DanmuseGitHub\InductometerTRD_FRBA\Simulations\Peak detector RLC-parallel\Inductometer.asc
Start Time: Sat Jul  6 17:08:58 2024
solver = Normal
Maximum thread count: 8
tnom = 27
temp = 27
method = modified trap
WARNING: Node NC_01 is floating.
WARNING: Node NC_02 is floating.

WARNING: Less than two connections to node nc_01.  This node is used by c3.
WARNING: Less than two connections to node nc_02.  This node is used by c4.
Direct Newton iteration for .op point succeeded.
Total elapsed time: 0.087 seconds.

