Circuit: * C:\Users\ddimodica\Desktop\Codemind\DanmuseGitHub\InductometerTRD_FRBA\Simulations\Peak detector RLC-parallel\Inductometer.asc

Direct Newton iteration for .op point succeeded.

Date: Sun Jun  9 16:51:30 2024
Total elapsed time: 0.069 seconds.

tnom = 27
temp = 27
method = trap
totiter = 45
traniter = 0
tranpoints = 0
accept = 0
rejected = 0
matrix size = 12
fillins = 1
solver = Normal
Avg thread counts: 8.0/0.0/8.0/2.0
Matrix Compiler1:      30 opcodes
Matrix Compiler2:      78 opcodes
