Circuit: * C:\Users\ddimodica\Desktop\Codemind\DanmuseGitHub\InductometerTRD_FRBA\Simulations\Inductometer.asc

Limiting rise time of source v1 to 1e-07
Limiting fall time of source v1 to 1e-07
Direct Newton iteration for .op point succeeded.

Date: Sun May 26 17:59:43 2024
Total elapsed time: 0.175 seconds.

tnom = 27
temp = 27
method = modified trap
totiter = 8031
traniter = 8028
tranpoints = 3580
accept = 3387
rejected = 193
matrix size = 7
fillins = 0
solver = Normal
Avg thread counts: 1.1/1.2/1.2/1.1
Matrix Compiler1: 196 bytes object code size  0.4/0.4/[0.3]
Matrix Compiler2: 487 bytes object code size  0.3/0.7/[0.2]

