LTspice 24.0.12 for Windows
Circuit: * C:\Users\ddimodica\Desktop\Codemind\DanmuseGitHub\InductometerTRD_FRBA\Simulations\Amplification stage\AmplificationStage.asc
Start Time: Sat Aug  3 21:57:02 2024
solver = Normal
Maximum thread count: 8
tnom = 27
temp = 27
method = modified trap
WARNING: Node NC_01 is floating.

WARNING: Less than two connections to node nc_01.  This node is used by c5.
Direct Newton iteration failed to find .op point.  (Use ".option noopiter" to skip.)
Starting Gmin stepping
Gmin = 10
Gmin = 1.07374
Gmin = 0.115292
Gmin = 0.0123794
Gmin = 0.00132923
Gmin = 0.000142725
vernier = 0.5
vernier = 0.666667
Gmin = 5.34392e-05
vernier = 0.888888
vernier = 1
Gmin = 7.53781e-06
Gmin = 8.09366e-07
Gmin = 8.6905e-08
Gmin = 9.33136e-09
Gmin = 1.00195e-09
vernier = 0.5
vernier = 0.25
Gmin = 2.10124e-10
vernier = 0.125
vernier = 0.0625
vernier = 0.03125
vernier = 0.015625
vernier = 0.0078125
vernier = 0.00390625
vernier = 0.00195312
vernier = 0.000976562
vernier = 0.000488281
Gmin = 0
Gmin = 0
Gmin stepping failed

Starting source stepping with srcstepmethod=0
Source Step = 3.0303%
vernier = 0.25
Source Step = 0.0177557%
Starting source stepping with srcstepmethod=1
Source Step = 3.0303%
vernier = 0.25
Source stepping failed

Pseudo Transient succeeded in finding the operating point at 243.168 ms.
Total elapsed time: 0.247 seconds.

